for testing.......
fisr file for git....



new line...
